/*--------------------------------*- C++ -*----------------------------------*\
  =========                 |
  \\      /  F ield         | OpenFOAM: The Open Source CFD Toolbox
   \\    /   O peration     | Website:  https://openfoam.org
    \\  /    A nd           | Version:  10
     \\/     M anipulation  |
\*---------------------------------------------------------------------------*/
FoamFile
{
    format      ascii;
    class       polyBoundaryMesh;
    location    "constant/polyMesh";
    object      boundary;
}
// * * * * * * * * * * * * * * * * * * * * * * * * * * * * * * * * * * * * * //

7
(
    back
    {
        type            empty;
        physicalType    patch;
        nFaces          107674;
        startFace       170419;
    }
    front
    {
        type            empty;
        physicalType    patch;
        nFaces          107674;
        startFace       278093;
    }
    exit
    {
        type            patch;
        physicalType    patch;
        nFaces          67;
        startFace       385767;
    }
    bottom
    {
        type            patch;
        physicalType    patch;
        nFaces          67;
        startFace       385834;
    }
    inlet
    {
        type            patch;
        physicalType    patch;
        nFaces          67;
        startFace       385901;
    }
    top
    {
        type            patch;
        physicalType    patch;
        nFaces          67;
        startFace       385968;
    }
    aerofoil
    {
        type            wall;
        physicalType    patch;
        nFaces          816;
        startFace       386035;
    }
)

// ************************************************************************* //
