/*--------------------------------*- C++ -*----------------------------------*\
| =========                 |                                                 |
| \\      /  F ield         | OpenFOAM: The Open Source CFD Toolbox           |
|  \\    /   O peration     | Version:  2206                                  |
|   \\  /    A nd           | Website:  www.openfoam.com                      |
|    \\/     M anipulation  |                                                 |
\*---------------------------------------------------------------------------*/
FoamFile
{
    version     2.0;
    format      ascii;
    arch        "LSB;label=32;scalar=64";
    class       featureEdgeMesh;
    location    "constant/triSurface";
    object      SACCON.eMesh;
}
// * * * * * * * * * * * * * * * * * * * * * * * * * * * * * * * * * * * * * //


// points:

96
(
(0.413831 0 0)
(0 0 0)
(0.487452 0.227045 0.0162862)
(0.487452 -0.227045 0.0162862)
(0.118721 0.0866049 -0.003406)
(0.301792 0.0866049 0)
(0.301792 -0.0866049 0)
(0.30186 -0.227045 -0.000892028)
(0.301826 -0.227045 -0.000871844)
(0.301561 -0.227045 -0.000678952)
(0.301535 -0.227045 -0.000654604)
(0.301435 -0.227045 0.000310446)
(0.119349 0.0866049 -0.00368902)
(0.11562 0.0866049 -0.00130369)
(0.116147 0.0866049 -0.00178939)
(0.116173 0.0866049 -0.00181107)
(0.117404 0.0866049 -0.00267736)
(0.118005 0.0866049 -0.003033)
(0.121549 0.0866049 -0.00441859)
(0.363288 0 -0.0133127)
(0.337499 0 -0.0177534)
(0.388741 0 -0.00730585)
(0.357808 0.0433055 0)
(0.0250737 0 -0.00606561)
(0.012565 0 -0.00318542)
(0.0862025 0.0649583 0)
(0.10057 0.0757846 0)
(0.00629534 0 -0.00163301)
(0.0431013 0.0324791 0)
(0.0574684 0.0433055 0)
(0.0287342 0.0216528 0)
(0.0718354 0.0541319 0)
(0.394618 0.156822 0.00814277)
(0.398108 0.299996 0)
(0.364555 0 0.0187302)
(0.389777 0 0.0108767)
(0.338708 0 0.024249)
(0.0488909 0 0.0186126)
(0.0747559 0 0.0239318)
(0.023974 0 0.0104669)
(0.119844 0.0866049 0.00431616)
(0.119155 0.0866049 0.00392915)
(0.11725 0.0866049 0.00275766)
(0.115489 0.0866049 0.00132323)
(0.11526 0.0866049 0.00102776)
(0.115078 0.0866049 0.000710123)
(0.00590704 0 0.00280239)
(0.0118885 0 0.00549096)
(0.312467 0 0.0274468)
(0.401991 0 0.00584846)
(0.357808 -0.0433055 0)
(0.118721 -0.0866049 -0.003406)
(0.118005 -0.0866049 -0.00303301)
(0.117404 -0.0866049 -0.00267736)
(0.116173 -0.0866049 -0.00181107)
(0.116147 -0.0866049 -0.00178939)
(0.11562 -0.0866049 -0.00130369)
(0.10057 -0.0757846 0)
(0.0862025 -0.0649583 0)
(0.0718354 -0.0541319 0)
(0.0574684 -0.0433055 0)
(0.0431013 -0.0324791 0)
(0.0287342 -0.0216528 0)
(0.394618 -0.156822 0.00814277)
(0.305791 -0.227045 -0.0018281)
(0.305697 -0.227045 -0.00181663)
(0.304257 -0.227045 -0.00160425)
(0.30289 -0.227045 -0.00129717)
(0.302193 -0.227045 -0.00105407)
(0.302151 -0.227045 -0.00103609)
(0.301413 -0.227045 -0.000519015)
(0.301337 -0.227045 -0.00038884)
(0.301294 -0.227045 -2.7968e-05)
(0.301298 -0.227045 -2.463e-06)
(0.301357 -0.227045 0.000169398)
(0.301555 -0.227045 0.000474444)
(0.301665 -0.227045 0.00059849)
(0.119155 -0.0866049 0.00392915)
(0.11725 -0.0866049 0.00275766)
(0.119844 -0.0866049 0.00431616)
(0.115489 -0.0866049 0.00132323)
(0.11526 -0.0866049 0.00102776)
(0.115078 -0.0866049 0.000710123)
(0.398108 -0.299996 0)
(0.295984 0.0866049 0.00141938)
(0.290158 0.0866049 0.00276153)
(0.278616 0.0866049 0.00517748)
(0.278457 0.0866049 0.00520847)
(0.266697 0.0866049 0.00733622)
(0.255188 0.0866049 0.00912644)
(0.295984 -0.0866049 0.00141938)
(0.290158 -0.0866049 0.00276153)
(0.278616 -0.0866049 0.00517748)
(0.278457 -0.0866049 0.00520847)
(0.266697 -0.0866049 0.00733622)
(0.255188 -0.0866049 0.00912644)
)


// edges:

99
(
(4 12)
(13 14)
(14 15)
(16 17)
(17 4)
(12 18)
(19 20)
(21 19)
(22 0)
(0 21)
(5 22)
(23 24)
(25 26)
(24 27)
(28 29)
(1 30)
(27 1)
(30 28)
(29 31)
(31 25)
(32 5)
(2 32)
(33 2)
(34 35)
(36 34)
(37 38)
(39 37)
(40 41)
(41 42)
(43 44)
(44 45)
(1 46)
(46 47)
(47 39)
(48 36)
(35 49)
(49 0)
(50 6)
(51 52)
(52 53)
(54 55)
(55 56)
(57 58)
(58 59)
(59 60)
(60 61)
(61 62)
(62 1)
(0 50)
(6 63)
(63 3)
(64 65)
(65 66)
(66 67)
(68 69)
(69 7)
(7 8)
(10 70)
(70 71)
(72 73)
(73 74)
(74 11)
(11 75)
(75 76)
(77 78)
(79 77)
(80 81)
(81 82)
(3 83)
(9 10)
(8 9)
(4 18)
(16 4)
(13 15)
(5 84)
(84 85)
(85 86)
(86 87)
(87 88)
(88 89)
(43 45)
(40 42)
(54 56)
(51 53)
(10 8)
(6 90)
(90 91)
(91 92)
(92 93)
(93 94)
(94 95)
(78 79)
(80 82)
(11 76)
(11 72)
(9 71)
(7 9)
(68 7)
(64 67)
)

// * * * * * * * * * * * * * * * * * * * * * * * * * * * * * * * * * * * * * //


// ************************************************************************* //
