/*--------------------------------*- C++ -*----------------------------------*\
  =========                 |
  \\      /  F ield         | OpenFOAM: The Open Source CFD Toolbox
   \\    /   O peration     | Website:  https://openfoam.org
    \\  /    A nd           | Version:  10
     \\/     M anipulation  |
\*---------------------------------------------------------------------------*/
FoamFile
{
    format      ascii;
    class       extendedFeatureEdgeMesh;
    location    "constant/extendedFeatureEdgeMesh";
    object      SACCON.extendedFeatureEdgeMesh;
}
// * * * * * * * * * * * * * * * * * * * * * * * * * * * * * * * * * * * * * //

// points

938
(
(0.413829 6.24173e-06 7.36849e-07)
(2.17696e-06 6.24173e-06 7.36849e-07)
(0.290075 0.0866102 7.36849e-07)
(0.456732 0.227049 0.0162868)
(0.456732 -0.227049 0.0162868)
(0.290075 -0.0866102 7.36849e-07)
(0.413829 -6.24173e-06 7.36849e-07)
(2.17696e-06 -6.24173e-06 7.36849e-07)
(0.258974 6.24173e-06 -0.0225733)
(0.252904 6.24173e-06 -0.0226325)
(0.232727 6.24173e-06 -0.0223899)
(0.281003 6.24173e-06 -0.0223587)
(0.20648 6.24173e-06 -0.0220743)
(0.285211 6.24173e-06 -0.0221587)
(0.298315 6.24173e-06 -0.021536)
(0.199893 6.24173e-06 -0.0219951)
(0.180248 6.24173e-06 -0.0213781)
(0.3041 6.24173e-06 -0.0212611)
(0.154031 6.24173e-06 -0.0205546)
(0.311391 6.24173e-06 -0.0205831)
(0.324445 6.24173e-06 -0.0193689)
(0.151474 6.24173e-06 -0.0204743)
(0.127845 6.24173e-06 -0.0193668)
(0.326143 6.24173e-06 -0.0192111)
(0.121298 6.24173e-06 -0.01906)
(0.337434 6.24173e-06 -0.0176321)
(0.101713 6.24173e-06 -0.0176423)
(0.0969174 6.24173e-06 -0.0172951)
(0.347516 6.24173e-06 -0.0162222)
(0.0886952 6.24173e-06 -0.0163549)
(0.0757025 6.24173e-06 -0.0148692)
(0.350383 6.24173e-06 -0.015671)
(0.363243 6.24173e-06 -0.0131984)
(0.0724193 6.24173e-06 -0.0144938)
(0.0627762 6.24173e-06 -0.0129662)
(0.369385 6.24173e-06 -0.0120175)
(0.0499218 6.24173e-06 -0.01093)
(0.376022 6.24173e-06 -0.0103942)
(0.048171 6.24173e-06 -0.0106527)
(0.0249249 6.24173e-06 -0.00600597)
(0.388729 6.24173e-06 -0.00728638)
(0.389672 6.24173e-06 -0.00705583)
(0.401289 6.24173e-06 -0.0036624)
(0.023653 6.24173e-06 -0.00575172)
(0.0125488 6.24173e-06 -0.0030509)
(0.00300506 6.24173e-06 0.00135499)
(0.403415 6.24173e-06 0.00519635)
(0.0060071 6.24173e-06 0.00270887)
(0.0120101 6.24173e-06 0.00541612)
(0.401969 6.24173e-06 0.0058026)
(0.0171262 6.24173e-06 0.0077234)
(0.390574 6.24173e-06 0.010578)
(0.0241818 6.24173e-06 0.0104215)
(0.0321808 6.24173e-06 0.0134803)
(0.389768 6.24173e-06 0.0108528)
(0.377266 6.24173e-06 0.015114)
(0.0365795 6.24173e-06 0.0148573)
(0.0465209 6.24173e-06 0.0179695)
(0.376791 6.24173e-06 0.015276)
(0.364533 6.24173e-06 0.0186184)
(0.0492189 6.24173e-06 0.0186154)
(0.0620358 6.24173e-06 0.021684)
(0.359367 6.24173e-06 0.0200271)
(0.351682 6.24173e-06 0.0216417)
(0.341883 6.24173e-06 0.0237007)
(0.0750744 6.24173e-06 0.0239189)
(0.338723 6.24173e-06 0.0241695)
(0.0775806 6.24173e-06 0.0243485)
(0.325657 6.24173e-06 0.0261081)
(0.0881696 6.24173e-06 0.0255934)
(0.0944052 6.24173e-06 0.0263265)
(0.325135 6.24173e-06 0.0261857)
(0.312506 6.24173e-06 0.0273217)
(0.101314 6.24173e-06 0.0268278)
(0.117998 6.24173e-06 0.0280383)
(0.305294 6.24173e-06 0.0279705)
(0.299333 6.24173e-06 0.0282709)
(0.127677 6.24173e-06 0.0284036)
(0.28614 6.24173e-06 0.0289359)
(0.149962 6.24173e-06 0.0292449)
(0.285052 6.24173e-06 0.0289908)
(0.259734 6.24173e-06 0.0297952)
(0.154076 6.24173e-06 0.0293194)
(0.206904 6.24173e-06 0.030277)
(0.248146 6.24173e-06 0.0301634)
(0.233322 6.24173e-06 0.0302267)
(0.209691 6.24173e-06 0.0303275)
(0.231561 0.0866102 -0.00702319)
(0.242889 0.0866102 -0.00634801)
(0.243319 0.0866102 -0.00630791)
(0.255054 0.0866102 -0.00521266)
(0.16443 0.0866102 0.0144423)
(0.159753 0.0866102 0.0142977)
(0.147802 0.0866102 0.0139282)
(0.171706 0.0866102 0.014465)
(0.188673 0.0866102 -0.00876365)
(0.196277 0.0866102 -0.00855205)
(0.172724 0.0866102 -0.00860169)
(0.184505 0.0866102 -0.00872133)
(0.208046 0.0866102 -0.00822457)
(0.214346 0.0866102 -0.00804928)
(0.161722 0.0866102 -0.00848996)
(0.219807 0.0866102 -0.00772379)
(0.261488 0.0866102 -0.00461224)
(0.266766 0.0866102 -0.00384946)
(0.278453 0.0866102 -0.00216069)
(0.279405 0.0866102 -0.00202304)
(0.284265 0.0866102 -0.00110123)
(0.254956 0.0866102 0.00721706)
(0.246479 0.0866102 0.00868799)
(0.243157 0.0866102 0.00911849)
(0.12526 0.0866102 0.0106087)
(0.124197 0.0866102 0.0103212)
(0.135918 0.0866102 0.0126653)
(0.130048 0.0866102 0.0115327)
(0.231301 0.0866102 0.0106549)
(0.136543 0.0866102 0.012786)
(0.141856 0.0866102 0.0133249)
(0.224232 0.0866102 0.011571)
(0.219428 0.0866102 0.0120294)
(0.207528 0.0866102 0.0131651)
(0.202871 0.0866102 0.0136095)
(0.195603 0.0866102 0.0139473)
(0.183665 0.0866102 0.0145023)
(0.183662 0.0866102 0.0145023)
(0.137345 0.0866102 -0.00756214)
(0.144945 0.0866102 -0.00800727)
(0.149142 0.0866102 -0.00812801)
(0.126048 0.0866102 -0.00690045)
(0.284243 0.0866102 0.00131337)
(0.10545 0.0866102 0.00270101)
(0.104929 0.0866102 0.00230955)
(0.278412 0.0866102 0.00262619)
(0.107446 0.0866102 0.00393298)
(0.112853 0.0866102 0.00651136)
(0.266734 0.0866102 0.00517327)
(0.268317 0.0866102 0.0048986)
(0.118488 0.0866102 0.00854798)
(0.121006 0.0866102 0.00945816)
(0.119533 0.0866102 -0.00610736)
(0.125523 0.0866102 -0.00683657)
(0.113526 0.0866102 -0.00517914)
(0.115567 0.0866102 -0.00562464)
(0.110556 0.0866102 -0.00453088)
(0.10908 0.0866102 -0.00419367)
(0.109177 0.0866102 -0.00422989)
(0.107666 0.0866102 -0.0036658)
(0.106974 0.0866102 -0.00337817)
(0.107119 0.0866102 -0.00346113)
(0.106319 0.0866102 -0.00300203)
(0.105039 0.0866102 -0.00223026)
(0.105229 0.0866102 -0.00237544)
(0.104453 0.0866102 -0.001782)
(0.103898 0.0866102 -0.00127839)
(0.104203 0.0866102 -0.00159119)
(0.103697 0.0866102 -0.00107235)
(0.103224 0.0866102 0.000261395)
(0.103219 0.0866102 0.000187281)
(0.103211 0.0866102 5.39564e-05)
(0.103272 0.0866102 0.000479196)
(0.103248 0.0866102 0.000371381)
(0.103366 0.0866102 0.000719416)
(0.103462 0.0866102 0.00088664)
(0.103524 0.0866102 0.000994395)
(0.104313 0.0866102 0.00184662)
(0.103808 0.0866102 0.00135688)
(0.104331 0.0866102 0.00185973)
(0.103644 0.0866102 -0.000996808)
(0.103313 0.0866102 -0.000445123)
(0.103449 0.0866102 -0.000723142)
(0.103245 0.0866102 -0.000227542)
(0.103239 0.0866102 -0.000180367)
(0.103213 0.0866102 7.36849e-07)
(0.183892 0.0866102 -0.00872365)
(0.180655 0.0866102 -0.00876958)
(0.172049 0.0866102 -0.00859955)
(0.195735 0.0866102 -0.00855564)
(0.1602 0.0866102 -0.00836545)
(0.205014 0.0866102 -0.008424)
(0.207572 0.0866102 -0.00829765)
(0.148373 0.0866102 -0.00813177)
(0.219401 0.0866102 -0.00771346)
(0.148346 0.0866102 -0.00813085)
(0.148265 0.0866102 -0.0081281)
(0.136496 0.0866102 -0.0075418)
(0.231232 0.0866102 -0.00712915)
(0.130646 0.0866102 -0.00725034)
(0.124647 0.0866102 -0.0066759)
(0.231759 0.0866102 -0.00710313)
(0.243049 0.0866102 -0.00623923)
(0.11869 0.0866102 -0.00610541)
(0.254352 0.0866102 -0.00537424)
(0.118612 0.0866102 -0.0060979)
(0.112773 0.0866102 -0.00506777)
(0.254867 0.0866102 -0.00531102)
(0.266642 0.0866102 -0.00386539)
(0.111846 0.0866102 -0.00490432)
(0.10985 0.0866102 -0.00437333)
(0.10851 0.0866102 -0.00401697)
(0.108403 0.0866102 -0.00397035)
(0.107716 0.0866102 -0.00367208)
(0.272276 0.0866102 -0.00317365)
(0.107027 0.0866102 -0.00337301)
(0.106456 0.0866102 -0.003125)
(0.278375 0.0866102 -0.00208589)
(0.106346 0.0866102 -0.003054)
(0.105711 0.0866102 -0.00264536)
(0.105084 0.0866102 -0.00224143)
(0.104646 0.0866102 -0.00195925)
(0.104481 0.0866102 -0.00181531)
(0.103976 0.0866102 -0.00137599)
(0.103918 0.0866102 -0.00131028)
(0.103661 0.0866102 -0.00102333)
(0.103629 0.0866102 -0.000987421)
(0.103449 0.0866102 -0.000710551)
(0.103399 0.0866102 -0.000635258)
(0.103361 0.0866102 -0.000547477)
(0.103292 0.0866102 -0.000389894)
(0.103233 0.0866102 -0.000166128)
(0.103217 0.0866102 -1.78351e-05)
(0.103211 0.0866102 4.51358e-05)
(0.278476 0.0866102 0.0026201)
(0.103219 0.0866102 0.000169408)
(0.103225 0.0866102 0.000273132)
(0.103244 0.0866102 0.000355769)
(0.103275 0.0866102 0.000487602)
(0.103294 0.0866102 0.000537015)
(0.103362 0.0866102 0.000710851)
(0.103454 0.0866102 0.000871402)
(0.103532 0.0866102 0.00100718)
(0.103783 0.0866102 0.00131851)
(0.103857 0.0866102 0.00141102)
(0.104316 0.0866102 0.00183127)
(0.104536 0.0866102 0.002033)
(0.105518 0.0866102 0.00269078)
(0.268914 0.0866102 0.00477949)
(0.106869 0.0866102 0.00359551)
(0.108063 0.0866102 0.0041904)
(0.112036 0.0866102 0.00617088)
(0.266849 0.0866102 0.00514556)
(0.255123 0.0866102 0.00722458)
(0.113423 0.0866102 0.00668756)
(0.11898 0.0866102 0.00875688)
(0.249246 0.0866102 0.00826665)
(0.243353 0.0866102 0.00905547)
(0.120128 0.0866102 0.00918438)
(0.231537 0.0866102 0.0106372)
(0.124698 0.0866102 0.010365)
(0.128187 0.0866102 0.0112662)
(0.22647 0.0866102 0.0113154)
(0.130506 0.0866102 0.0116596)
(0.21969 0.0866102 0.011982)
(0.136381 0.0866102 0.0126561)
(0.207818 0.0866102 0.0131493)
(0.13962 0.0866102 0.0132056)
(0.204024 0.0866102 0.0135224)
(0.142284 0.0866102 0.0134154)
(0.148227 0.0866102 0.0138835)
(0.195918 0.0866102 0.0139631)
(0.150585 0.0866102 0.0140693)
(0.187813 0.0866102 0.0144038)
(0.160142 0.0866102 0.0142938)
(0.169812 0.0866102 0.0145209)
(0.184 0.0866102 0.0144286)
(0.172069 0.0866102 0.0145062)
(0.422065 0.227049 0.00901476)
(0.424472 0.227049 0.00936738)
(0.433702 0.227049 0.0110978)
(0.277642 0.227049 0.00406746)
(0.276126 0.227049 0.00338076)
(0.440789 0.227049 0.0124265)
(0.445262 0.227049 0.0135095)
(0.286098 0.227049 0.00716882)
(0.281631 0.227049 0.00553074)
(0.292904 0.227049 0.00897023)
(0.287209 0.227049 0.00746281)
(0.292509 0.227049 -0.00240182)
(0.295262 0.227049 -0.00243894)
(0.304309 0.227049 -0.00224315)
(0.31613 0.227049 -0.00198735)
(0.280818 0.227049 -0.00224416)
(0.327942 0.227049 -0.00133216)
(0.335972 0.227049 -0.000886757)
(0.339749 0.227049 -0.000534594)
(0.35154 0.227049 0.000564629)
(0.363333 0.227049 0.0016641)
(0.27072 0.227049 -0.000551202)
(0.270766 0.227049 -0.000599969)
(0.270654 0.227049 -0.000457317)
(0.270656 0.227049 -0.000459751)
(0.270614 0.227049 -0.000376415)
(0.270587 0.227049 -0.000289583)
(0.270568 0.227049 -0.000172488)
(0.270583 0.227049 -0.000276936)
(0.270569 0.227049 -0.000108292)
(0.270579 0.227049 -1.77471e-05)
(0.27057 0.227049 -6.50787e-05)
(0.270588 0.227049 2.9508e-05)
(0.270603 0.227049 6.99876e-05)
(0.270947 0.227049 0.000599223)
(0.2709 0.227049 0.000548709)
(0.27083 0.227049 0.000458457)
(0.271512 0.227049 0.00107051)
(0.271399 0.227049 0.0009985)
(0.271223 0.227049 0.000843438)
(0.368321 0.227049 0.00212913)
(0.386878 0.227049 0.0042692)
(0.272136 0.227049 0.00146516)
(0.272734 0.227049 0.00184342)
(0.273434 0.227049 0.00216055)
(0.398641 0.227049 0.00562588)
(0.400025 0.227049 0.00578547)
(0.410359 0.227049 0.00729952)
(0.296863 0.227049 0.0100182)
(0.310897 0.227049 0.0128217)
(0.304379 0.227049 0.0115196)
(0.448792 0.227049 0.0170001)
(0.444984 0.227049 0.0172314)
(0.433228 0.227049 0.0179453)
(0.315955 0.227049 0.0135364)
(0.427626 0.227049 0.0182855)
(0.330316 0.227049 0.0155656)
(0.327592 0.227049 0.0151807)
(0.42147 0.227049 0.0184381)
(0.411266 0.227049 0.0186912)
(0.339934 0.227049 0.016617)
(0.339262 0.227049 0.0165436)
(0.40971 0.227049 0.0186832)
(0.397953 0.227049 0.0186228)
(0.35098 0.227049 0.0173527)
(0.358716 0.227049 0.017868)
(0.386199 0.227049 0.0185625)
(0.385312 0.227049 0.018558)
(0.374453 0.227049 0.0182762)
(0.362708 0.227049 0.0179715)
(0.27791 0.227049 -0.00205621)
(0.275012 0.227049 -0.00177917)
(0.276128 0.227049 -0.00194103)
(0.272829 0.227049 -0.00146271)
(0.273569 0.227049 -0.00156997)
(0.272146 0.227049 -0.00126666)
(0.271796 0.227049 -0.00116596)
(0.271454 0.227049 -0.00103893)
(0.271659 0.227049 -0.00112676)
(0.271284 0.227049 -0.00096609)
(0.271129 0.227049 -0.000875643)
(0.27101 0.227049 -0.000805974)
(0.270815 0.227049 -0.000651165)
(0.270831 0.227049 -0.000664497)
(0.270633 0.227049 0.000155508)
(0.270635 0.227049 0.000159577)
(0.27072 0.227049 0.000314337)
(0.270725 0.227049 0.000323938)
(0.30487 0.227049 -0.00226632)
(0.295387 0.227049 -0.00243881)
(0.293083 0.227049 -0.00242037)
(0.284099 0.227049 -0.00234847)
(0.281297 0.227049 -0.0022278)
(0.309879 0.227049 -0.00217522)
(0.277737 0.227049 -0.00207447)
(0.316654 0.227049 -0.00192409)
(0.275418 0.227049 -0.00184313)
(0.324896 0.227049 -0.00161858)
(0.274452 0.227049 -0.00174678)
(0.273958 0.227049 -0.00165542)
(0.272511 0.227049 -0.00138777)
(0.328429 0.227049 -0.0013725)
(0.272505 0.227049 -0.00138627)
(0.271804 0.227049 -0.00117488)
(0.339469 0.227049 -0.000603477)
(0.271717 0.227049 -0.00114857)
(0.271464 0.227049 -0.00103689)
(0.271186 0.227049 -0.000914599)
(0.271131 0.227049 -0.000879949)
(0.270975 0.227049 -0.000782253)
(0.270966 0.227049 -0.000776116)
(0.270833 0.227049 -0.000665264)
(0.270806 0.227049 -0.000642239)
(0.270708 0.227049 -0.000534213)
(0.340188 0.227049 -0.000537771)
(0.357127 0.227049 0.00101072)
(0.270706 0.227049 -0.000531292)
(0.270655 0.227049 -0.000455114)
(0.270645 0.227049 -0.000441317)
(0.270614 0.227049 -0.000373632)
(0.270602 0.227049 -0.000348246)
(0.270586 0.227049 -0.000286899)
(0.270576 0.227049 -0.000250687)
(0.270571 0.227049 -0.000196357)
(0.270566 0.227049 -0.000151622)
(0.270569 0.227049 -0.000104268)
(0.270573 0.227049 -4.68612e-05)
(0.27058 0.227049 -1.29565e-05)
(0.270596 0.227049 5.65604e-05)
(0.270638 0.227049 0.000161323)
(0.270651 0.227049 0.000193538)
(0.270725 0.227049 0.000323174)
(0.270878 0.227049 0.000523848)
(0.270961 0.227049 0.000604172)
(0.271219 0.227049 0.00085422)
(0.271829 0.227049 0.00128208)
(0.36366 0.227049 0.00169473)
(0.272144 0.227049 0.00150284)
(0.273113 0.227049 0.00199572)
(0.383847 0.227049 0.00380859)
(0.274897 0.227049 0.00290266)
(0.275772 0.227049 0.00326075)
(0.28055 0.227049 0.00521668)
(0.387103 0.227049 0.00421085)
(0.398803 0.227049 0.00565627)
(0.281239 0.227049 0.00545775)
(0.286354 0.227049 0.00724765)
(0.402568 0.227049 0.00612141)
(0.41048 0.227049 0.00727157)
(0.286811 0.227049 0.00737225)
(0.420915 0.227049 0.00878847)
(0.292498 0.227049 0.00892067)
(0.422141 0.227049 0.00900052)
(0.293924 0.227049 0.00930906)
(0.43342 0.227049 0.0109509)
(0.298233 0.227049 0.0102704)
(0.303986 0.227049 0.0115537)
(0.433756 0.227049 0.0110206)
(0.445154 0.227049 0.0133865)
(0.304481 0.227049 0.0116642)
(0.309789 0.227049 0.0125771)
(0.314896 0.227049 0.0134552)
(0.445297 0.227049 0.0134223)
(0.315601 0.227049 0.0135513)
(0.327282 0.227049 0.0151417)
(0.331017 0.227049 0.0156504)
(0.338992 0.227049 0.0164748)
(0.446186 0.227049 0.017207)
(0.343336 0.227049 0.0169238)
(0.350741 0.227049 0.0174001)
(0.444986 0.227049 0.0172788)
(0.43322 0.227049 0.0179839)
(0.356573 0.227049 0.0177752)
(0.362514 0.227049 0.0179656)
(0.373582 0.227049 0.0183205)
(0.429453 0.227049 0.0182096)
(0.421442 0.227049 0.0184387)
(0.386083 0.227049 0.0185278)
(0.413713 0.227049 0.0186597)
(0.396686 0.227049 0.0187037)
(0.409657 0.227049 0.0186702)
(0.397869 0.227049 0.0187007)
(0.284099 -0.227049 -0.00234847)
(0.293083 -0.227049 -0.00242037)
(0.295387 -0.227049 -0.00243881)
(0.30487 -0.227049 -0.00226632)
(0.309879 -0.227049 -0.00217522)
(0.281297 -0.227049 -0.0022278)
(0.277737 -0.227049 -0.00207447)
(0.316654 -0.227049 -0.00192409)
(0.324896 -0.227049 -0.00161858)
(0.274452 -0.227049 -0.00174678)
(0.275418 -0.227049 -0.00184313)
(0.272511 -0.227049 -0.00138777)
(0.273958 -0.227049 -0.00165542)
(0.328429 -0.227049 -0.0013725)
(0.339469 -0.227049 -0.000603477)
(0.272505 -0.227049 -0.00138627)
(0.271717 -0.227049 -0.00114857)
(0.271804 -0.227049 -0.00117488)
(0.271186 -0.227049 -0.000914599)
(0.271464 -0.227049 -0.00103689)
(0.271131 -0.227049 -0.000879949)
(0.270975 -0.227049 -0.000782253)
(0.270966 -0.227049 -0.000776116)
(0.270806 -0.227049 -0.000642239)
(0.270833 -0.227049 -0.000665264)
(0.340188 -0.227049 -0.000537771)
(0.270708 -0.227049 -0.000534213)
(0.270655 -0.227049 -0.000455114)
(0.270706 -0.227049 -0.000531292)
(0.270645 -0.227049 -0.000441317)
(0.270602 -0.227049 -0.000348246)
(0.270614 -0.227049 -0.000373632)
(0.270576 -0.227049 -0.000250687)
(0.270586 -0.227049 -0.000286899)
(0.270566 -0.227049 -0.000151622)
(0.270571 -0.227049 -0.000196357)
(0.270573 -0.227049 -4.68612e-05)
(0.270569 -0.227049 -0.000104268)
(0.270596 -0.227049 5.65604e-05)
(0.27058 -0.227049 -1.29565e-05)
(0.270638 -0.227049 0.000161323)
(0.270651 -0.227049 0.000193538)
(0.270961 -0.227049 0.000604172)
(0.270878 -0.227049 0.000523848)
(0.270725 -0.227049 0.000323174)
(0.271219 -0.227049 0.00085422)
(0.271829 -0.227049 0.00128208)
(0.273113 -0.227049 0.00199572)
(0.272144 -0.227049 0.00150284)
(0.357127 -0.227049 0.00101072)
(0.36366 -0.227049 0.00169473)
(0.275772 -0.227049 0.00326075)
(0.274897 -0.227049 0.00290266)
(0.281239 -0.227049 0.00545775)
(0.28055 -0.227049 0.00521668)
(0.383847 -0.227049 0.00380859)
(0.387103 -0.227049 0.00421085)
(0.286811 -0.227049 0.00737225)
(0.286354 -0.227049 0.00724765)
(0.398803 -0.227049 0.00565627)
(0.402568 -0.227049 0.00612141)
(0.41048 -0.227049 0.00727157)
(0.292498 -0.227049 0.00892067)
(0.298233 -0.227049 0.0102704)
(0.293924 -0.227049 0.00930906)
(0.420915 -0.227049 0.00878847)
(0.422141 -0.227049 0.00900052)
(0.303986 -0.227049 0.0115537)
(0.43342 -0.227049 0.0109509)
(0.433756 -0.227049 0.0110206)
(0.309789 -0.227049 0.0125771)
(0.304481 -0.227049 0.0116642)
(0.314896 -0.227049 0.0134552)
(0.445154 -0.227049 0.0133865)
(0.445297 -0.227049 0.0134223)
(0.327282 -0.227049 0.0151417)
(0.315601 -0.227049 0.0135513)
(0.331017 -0.227049 0.0156504)
(0.446186 -0.227049 0.017207)
(0.338992 -0.227049 0.0164748)
(0.343336 -0.227049 0.0169238)
(0.444986 -0.227049 0.0172788)
(0.356573 -0.227049 0.0177752)
(0.350741 -0.227049 0.0174001)
(0.373582 -0.227049 0.0183205)
(0.362514 -0.227049 0.0179656)
(0.43322 -0.227049 0.0179839)
(0.429453 -0.227049 0.0182096)
(0.421442 -0.227049 0.0184387)
(0.413713 -0.227049 0.0186597)
(0.386083 -0.227049 0.0185278)
(0.396686 -0.227049 0.0187037)
(0.409657 -0.227049 0.0186702)
(0.397869 -0.227049 0.0187007)
(0.295262 -0.227049 -0.00243894)
(0.292509 -0.227049 -0.00240182)
(0.304309 -0.227049 -0.00224315)
(0.280818 -0.227049 -0.00224416)
(0.27791 -0.227049 -0.00205621)
(0.31613 -0.227049 -0.00198735)
(0.276128 -0.227049 -0.00194103)
(0.327942 -0.227049 -0.00133216)
(0.275012 -0.227049 -0.00177917)
(0.273569 -0.227049 -0.00156997)
(0.272829 -0.227049 -0.00146271)
(0.272146 -0.227049 -0.00126666)
(0.335972 -0.227049 -0.000886757)
(0.271796 -0.227049 -0.00116596)
(0.271659 -0.227049 -0.00112676)
(0.271454 -0.227049 -0.00103893)
(0.271284 -0.227049 -0.00096609)
(0.271129 -0.227049 -0.000875643)
(0.339749 -0.227049 -0.000534594)
(0.27101 -0.227049 -0.000805974)
(0.270831 -0.227049 -0.000664497)
(0.270815 -0.227049 -0.000651165)
(0.270766 -0.227049 -0.000599969)
(0.27072 -0.227049 -0.000551202)
(0.270656 -0.227049 -0.000459751)
(0.35154 -0.227049 0.000564629)
(0.270654 -0.227049 -0.000457317)
(0.270614 -0.227049 -0.000376415)
(0.270583 -0.227049 -0.000276936)
(0.270568 -0.227049 -0.000172488)
(0.27057 -0.227049 -6.50787e-05)
(0.270579 -0.227049 -1.77471e-05)
(0.270588 -0.227049 2.9508e-05)
(0.270603 -0.227049 6.99876e-05)
(0.270633 -0.227049 0.000155508)
(0.270635 -0.227049 0.000159577)
(0.27072 -0.227049 0.000314337)
(0.270725 -0.227049 0.000323938)
(0.27083 -0.227049 0.000458457)
(0.2709 -0.227049 0.000548709)
(0.270947 -0.227049 0.000599223)
(0.363333 -0.227049 0.0016641)
(0.271223 -0.227049 0.000843438)
(0.271399 -0.227049 0.0009985)
(0.271512 -0.227049 0.00107051)
(0.272136 -0.227049 0.00146516)
(0.272734 -0.227049 0.00184342)
(0.368321 -0.227049 0.00212913)
(0.273434 -0.227049 0.00216055)
(0.386878 -0.227049 0.0042692)
(0.276126 -0.227049 0.00338076)
(0.277642 -0.227049 0.00406746)
(0.281631 -0.227049 0.00553074)
(0.398641 -0.227049 0.00562588)
(0.286098 -0.227049 0.00716882)
(0.400025 -0.227049 0.00578547)
(0.410359 -0.227049 0.00729952)
(0.287209 -0.227049 0.00746281)
(0.422065 -0.227049 0.00901476)
(0.292904 -0.227049 0.00897023)
(0.296863 -0.227049 0.0100182)
(0.424472 -0.227049 0.00936738)
(0.433702 -0.227049 0.0110978)
(0.304379 -0.227049 0.0115196)
(0.440789 -0.227049 0.0124265)
(0.310897 -0.227049 0.0128217)
(0.445262 -0.227049 0.0135095)
(0.315955 -0.227049 0.0135364)
(0.327592 -0.227049 0.0151807)
(0.330316 -0.227049 0.0155656)
(0.339262 -0.227049 0.0165436)
(0.448792 -0.227049 0.0170001)
(0.339934 -0.227049 0.016617)
(0.35098 -0.227049 0.0173527)
(0.444984 -0.227049 0.0172314)
(0.433228 -0.227049 0.0179453)
(0.358716 -0.227049 0.017868)
(0.362708 -0.227049 0.0179715)
(0.427626 -0.227049 0.0182855)
(0.374453 -0.227049 0.0182762)
(0.385312 -0.227049 0.018558)
(0.42147 -0.227049 0.0184381)
(0.411266 -0.227049 0.0186912)
(0.386199 -0.227049 0.0185625)
(0.397953 -0.227049 0.0186228)
(0.40971 -0.227049 0.0186832)
(0.148346 -0.0866102 -0.00813085)
(0.148373 -0.0866102 -0.00813177)
(0.1602 -0.0866102 -0.00836545)
(0.254867 -0.0866102 -0.00531102)
(0.266642 -0.0866102 -0.00386539)
(0.272276 -0.0866102 -0.00317365)
(0.113423 -0.0866102 0.00668756)
(0.112036 -0.0866102 0.00617088)
(0.108063 -0.0866102 0.0041904)
(0.278375 -0.0866102 -0.00208589)
(0.11898 -0.0866102 0.00875688)
(0.124698 -0.0866102 0.010365)
(0.120128 -0.0866102 0.00918438)
(0.130506 -0.0866102 0.0116596)
(0.128187 -0.0866102 0.0112662)
(0.136381 -0.0866102 0.0126561)
(0.13962 -0.0866102 0.0132056)
(0.142284 -0.0866102 0.0134154)
(0.172049 -0.0866102 -0.00859955)
(0.180655 -0.0866102 -0.00876958)
(0.183892 -0.0866102 -0.00872365)
(0.130646 -0.0866102 -0.00725034)
(0.136496 -0.0866102 -0.0075418)
(0.148265 -0.0866102 -0.0081281)
(0.195735 -0.0866102 -0.00855564)
(0.205014 -0.0866102 -0.008424)
(0.124647 -0.0866102 -0.0066759)
(0.207572 -0.0866102 -0.00829765)
(0.11869 -0.0866102 -0.00610541)
(0.118612 -0.0866102 -0.0060979)
(0.219401 -0.0866102 -0.00771346)
(0.111846 -0.0866102 -0.00490432)
(0.112773 -0.0866102 -0.00506777)
(0.231232 -0.0866102 -0.00712915)
(0.231759 -0.0866102 -0.00710313)
(0.10985 -0.0866102 -0.00437333)
(0.254352 -0.0866102 -0.00537424)
(0.243049 -0.0866102 -0.00623923)
(0.103292 -0.0866102 -0.000389894)
(0.103361 -0.0866102 -0.000547477)
(0.103242 -0.0866102 -0.000200874)
(0.103233 -0.0866102 -0.000166128)
(0.103217 -0.0866102 -1.78351e-05)
(0.103211 -0.0866102 4.51358e-05)
(0.103225 -0.0866102 0.000273132)
(0.103219 -0.0866102 0.000169408)
(0.103275 -0.0866102 0.000487602)
(0.103244 -0.0866102 0.000355769)
(0.103362 -0.0866102 0.000710851)
(0.103294 -0.0866102 0.000537015)
(0.103454 -0.0866102 0.000871402)
(0.103532 -0.0866102 0.00100718)
(0.103783 -0.0866102 0.00131851)
(0.104316 -0.0866102 0.00183127)
(0.103857 -0.0866102 0.00141102)
(0.104536 -0.0866102 0.002033)
(0.105518 -0.0866102 0.00269078)
(0.106869 -0.0866102 0.00359551)
(0.278476 -0.0866102 0.0026201)
(0.266849 -0.0866102 0.00514556)
(0.255123 -0.0866102 0.00722458)
(0.268914 -0.0866102 0.00477949)
(0.243353 -0.0866102 0.00905547)
(0.231537 -0.0866102 0.0106372)
(0.249246 -0.0866102 0.00826665)
(0.22647 -0.0866102 0.0113154)
(0.21969 -0.0866102 0.011982)
(0.207818 -0.0866102 0.0131493)
(0.160142 -0.0866102 0.0142938)
(0.150585 -0.0866102 0.0140693)
(0.148227 -0.0866102 0.0138835)
(0.169812 -0.0866102 0.0145209)
(0.172069 -0.0866102 0.0145062)
(0.204024 -0.0866102 0.0135224)
(0.195918 -0.0866102 0.0139631)
(0.184 -0.0866102 0.0144286)
(0.187813 -0.0866102 0.0144038)
(0.107716 -0.0866102 -0.00367208)
(0.108403 -0.0866102 -0.00397035)
(0.10851 -0.0866102 -0.00401697)
(0.107027 -0.0866102 -0.00337301)
(0.106456 -0.0866102 -0.003125)
(0.105711 -0.0866102 -0.00264536)
(0.106346 -0.0866102 -0.003054)
(0.105084 -0.0866102 -0.00224143)
(0.104646 -0.0866102 -0.00195925)
(0.103976 -0.0866102 -0.00137599)
(0.104481 -0.0866102 -0.00181531)
(0.103918 -0.0866102 -0.00131028)
(0.103661 -0.0866102 -0.00102333)
(0.103629 -0.0866102 -0.000987421)
(0.103449 -0.0866102 -0.000710551)
(0.103399 -0.0866102 -0.000635258)
(0.196277 -0.0866102 -0.00855205)
(0.188673 -0.0866102 -0.00876365)
(0.184505 -0.0866102 -0.00872133)
(0.172724 -0.0866102 -0.00860169)
(0.161722 -0.0866102 -0.00848996)
(0.208046 -0.0866102 -0.00822457)
(0.149142 -0.0866102 -0.00812801)
(0.214346 -0.0866102 -0.00804928)
(0.144945 -0.0866102 -0.00800727)
(0.219807 -0.0866102 -0.00772379)
(0.137345 -0.0866102 -0.00756214)
(0.231561 -0.0866102 -0.00702319)
(0.126048 -0.0866102 -0.00690045)
(0.242889 -0.0866102 -0.00634801)
(0.125523 -0.0866102 -0.00683657)
(0.119533 -0.0866102 -0.00610736)
(0.243319 -0.0866102 -0.00630791)
(0.255054 -0.0866102 -0.00521266)
(0.115567 -0.0866102 -0.00562464)
(0.113526 -0.0866102 -0.00517914)
(0.261488 -0.0866102 -0.00461224)
(0.110556 -0.0866102 -0.00453088)
(0.266766 -0.0866102 -0.00384946)
(0.109177 -0.0866102 -0.00422989)
(0.10908 -0.0866102 -0.00419367)
(0.107666 -0.0866102 -0.0036658)
(0.278453 -0.0866102 -0.00216069)
(0.107119 -0.0866102 -0.00346113)
(0.106974 -0.0866102 -0.00337817)
(0.106319 -0.0866102 -0.00300203)
(0.105229 -0.0866102 -0.00237544)
(0.105039 -0.0866102 -0.00223026)
(0.104453 -0.0866102 -0.001782)
(0.279405 -0.0866102 -0.00202304)
(0.284265 -0.0866102 -0.00110123)
(0.104203 -0.0866102 -0.00159119)
(0.103898 -0.0866102 -0.00127839)
(0.103697 -0.0866102 -0.00107235)
(0.103644 -0.0866102 -0.000996808)
(0.103449 -0.0866102 -0.000723142)
(0.103351 -0.0866102 -0.000523758)
(0.103313 -0.0866102 -0.000445123)
(0.103245 -0.0866102 -0.000227542)
(0.103239 -0.0866102 -0.000180367)
(0.103213 -0.0866102 7.36849e-07)
(0.103211 -0.0866102 5.39564e-05)
(0.284243 -0.0866102 0.00131337)
(0.103219 -0.0866102 0.000187281)
(0.103224 -0.0866102 0.000261395)
(0.103248 -0.0866102 0.000371381)
(0.103272 -0.0866102 0.000479196)
(0.1033 -0.0866102 0.000550503)
(0.103366 -0.0866102 0.000719416)
(0.103462 -0.0866102 0.00088664)
(0.103524 -0.0866102 0.000994395)
(0.103562 -0.0866102 0.00104379)
(0.103808 -0.0866102 0.00135688)
(0.278412 -0.0866102 0.00262619)
(0.104313 -0.0866102 0.00184662)
(0.104331 -0.0866102 0.00185973)
(0.104929 -0.0866102 0.00230955)
(0.10545 -0.0866102 0.00270101)
(0.268317 -0.0866102 0.0048986)
(0.107446 -0.0866102 0.00393298)
(0.112853 -0.0866102 0.00651136)
(0.266734 -0.0866102 0.00517327)
(0.254956 -0.0866102 0.00721706)
(0.118488 -0.0866102 0.00854798)
(0.246479 -0.0866102 0.00868799)
(0.121006 -0.0866102 0.00945816)
(0.243157 -0.0866102 0.00911849)
(0.231301 -0.0866102 0.0106549)
(0.124197 -0.0866102 0.0103212)
(0.12526 -0.0866102 0.0106087)
(0.130048 -0.0866102 0.0115327)
(0.224232 -0.0866102 0.011571)
(0.135918 -0.0866102 0.0126653)
(0.219428 -0.0866102 0.0120294)
(0.207528 -0.0866102 0.0131651)
(0.136543 -0.0866102 0.012786)
(0.141856 -0.0866102 0.0133249)
(0.202871 -0.0866102 0.0136095)
(0.147802 -0.0866102 0.0139282)
(0.195603 -0.0866102 0.0139473)
(0.159753 -0.0866102 0.0142977)
(0.183665 -0.0866102 0.0145023)
(0.16443 -0.0866102 0.0144423)
(0.171706 -0.0866102 0.014465)
(0.183662 -0.0866102 0.0145023)
(0.20648 -6.24173e-06 -0.0220743)
(0.232727 -6.24173e-06 -0.0223899)
(0.252904 -6.24173e-06 -0.0226325)
(0.199893 -6.24173e-06 -0.0219951)
(0.258974 -6.24173e-06 -0.0225733)
(0.281003 -6.24173e-06 -0.0223587)
(0.154031 -6.24173e-06 -0.0205546)
(0.180248 -6.24173e-06 -0.0213781)
(0.285211 -6.24173e-06 -0.0221587)
(0.151474 -6.24173e-06 -0.0204743)
(0.298315 -6.24173e-06 -0.021536)
(0.127845 -6.24173e-06 -0.0193668)
(0.3041 -6.24173e-06 -0.0212611)
(0.311391 -6.24173e-06 -0.0205831)
(0.324445 -6.24173e-06 -0.0193689)
(0.326143 -6.24173e-06 -0.0192111)
(0.337434 -6.24173e-06 -0.0176321)
(0.347516 -6.24173e-06 -0.0162222)
(0.350383 -6.24173e-06 -0.015671)
(0.363243 -6.24173e-06 -0.0131984)
(0.369385 -6.24173e-06 -0.0120175)
(0.376022 -6.24173e-06 -0.0103942)
(0.388729 -6.24173e-06 -0.00728638)
(0.389672 -6.24173e-06 -0.00705583)
(0.401289 -6.24173e-06 -0.0036624)
(0.377266 -6.24173e-06 0.015114)
(0.376791 -6.24173e-06 0.015276)
(0.364533 -6.24173e-06 0.0186184)
(0.359367 -6.24173e-06 0.0200271)
(0.351682 -6.24173e-06 0.0216417)
(0.341883 -6.24173e-06 0.0237007)
(0.338723 -6.24173e-06 0.0241695)
(0.325657 -6.24173e-06 0.0261081)
(0.325135 -6.24173e-06 0.0261857)
(0.312506 -6.24173e-06 0.0273217)
(0.305294 -6.24173e-06 0.0279705)
(0.299333 -6.24173e-06 0.0282709)
(0.28614 -6.24173e-06 0.0289359)
(0.285052 -6.24173e-06 0.0289908)
(0.0969174 -6.24173e-06 -0.0172951)
(0.101713 -6.24173e-06 -0.0176423)
(0.121298 -6.24173e-06 -0.01906)
(0.0757025 -6.24173e-06 -0.0148692)
(0.0886952 -6.24173e-06 -0.0163549)
(0.0724193 -6.24173e-06 -0.0144938)
(0.0627762 -6.24173e-06 -0.0129662)
(0.403415 -6.24173e-06 0.00519635)
(0.0060071 -6.24173e-06 0.00270887)
(0.00300506 -6.24173e-06 0.00135499)
(0.0120101 -6.24173e-06 0.00541612)
(0.401969 -6.24173e-06 0.0058026)
(0.390574 -6.24173e-06 0.010578)
(0.0171262 -6.24173e-06 0.0077234)
(0.0241818 -6.24173e-06 0.0104215)
(0.389768 -6.24173e-06 0.0108528)
(0.0365795 -6.24173e-06 0.0148573)
(0.0321808 -6.24173e-06 0.0134803)
(0.0492189 -6.24173e-06 0.0186154)
(0.0465209 -6.24173e-06 0.0179695)
(0.0620358 -6.24173e-06 0.021684)
(0.0750744 -6.24173e-06 0.0239189)
(0.0881696 -6.24173e-06 0.0255934)
(0.0775806 -6.24173e-06 0.0243485)
(0.0944052 -6.24173e-06 0.0263265)
(0.117998 -6.24173e-06 0.0280383)
(0.101314 -6.24173e-06 0.0268278)
(0.149962 -6.24173e-06 0.0292449)
(0.127677 -6.24173e-06 0.0284036)
(0.259734 -6.24173e-06 0.0297952)
(0.248146 -6.24173e-06 0.0301634)
(0.206904 -6.24173e-06 0.030277)
(0.154076 -6.24173e-06 0.0293194)
(0.233322 -6.24173e-06 0.0302267)
(0.209691 -6.24173e-06 0.0303275)
(0.0249249 -6.24173e-06 -0.00600597)
(0.048171 -6.24173e-06 -0.0106527)
(0.0499218 -6.24173e-06 -0.01093)
(0.023653 -6.24173e-06 -0.00575172)
(0.0125488 -6.24173e-06 -0.0030509)
(0.38289 0.0216572 7.36849e-07)
(0.0129035 0.0108317 7.36849e-07)
(0.0193542 0.0162445 7.36849e-07)
(0.0258048 0.0216572 7.36849e-07)
(0.0322555 0.02707 7.36849e-07)
(0.351952 0.0433082 7.36849e-07)
(0.0387062 0.0324827 7.36849e-07)
(0.0451568 0.0378955 7.36849e-07)
(0.0516075 0.0433082 7.36849e-07)
(0.321013 0.0649592 7.36849e-07)
(0.0580582 0.048721 7.36849e-07)