/*--------------------------------*- C++ -*----------------------------------*\
|                                                                             |
|    HiSA: High Speed Aerodynamic solver                                      |
|    Copyright (C) 2014-2017 Johan Heyns - CSIR, South Africa                 |
|    Copyright (C) 2014-2017 Oliver Oxtoby - CSIR, South Africa               |
|                                                                             |
\*---------------------------------------------------------------------------*/
FoamFile
{
    version     2.0;
    format      ascii;
    class       dictionary;
    location    "system";
    object      fvSchemes;
}
// * * * * * * * * * * * * * * * * * * * * * * * * * * * * * * * * * * * * * //


fluxScheme           AUSMPlusUp;
lowMachAusm          false;

ddtSchemes
{
    default          bounded dualTime rPseudoDeltaT steadyState;
}

gradSchemes
{
    default          faceLeastSquares linear;
    grad(nuTilda)    cellLimited Gauss linear 0.1;
    grad(k)          cellLimited Gauss linear 0.1;
    grad(omega)      cellLimited Gauss linear 0.1;
}

divSchemes
{
    default          none;
    div(tauMC)       Gauss linear;
    div(phi,nuTilda) bounded Gauss upwind phi;
    div(phi,k)       bounded Gauss upwind phi;
    div(phi,omega)   bounded Gauss upwind phi;
}

laplacianSchemes
{
    default                     Gauss linear corrected;
    laplacian(muEff,U)          Gauss linear compact;
    laplacian(alphaEff,e)       Gauss linear compact;
    laplacian(yPsi)             Gauss linear corrected;
}

interpolate          wVanLeer;
interpolationSchemes
{
    default          linear;
    reconstruct(rho) $interpolate;
    reconstruct(U)   $interpolate;
    reconstruct(T)   $interpolate;
}

snGradSchemes
{
    default          corrected;
}

wallDist
{
    // Poisson is not currently used because the solution of
    // yPsi does not converge and results in an inaccurate wall
    // distance approximation.
    method           meshWave;
}

// ************************************************************************* //
