/*--------------------------------*- C++ -*----------------------------------*\
  =========                 |
  \\      /  F ield         | OpenFOAM: The Open Source CFD Toolbox
   \\    /   O peration     | Website:  https://openfoam.org
    \\  /    A nd           | Version:  10
     \\/     M anipulation  |
\*---------------------------------------------------------------------------*/
FoamFile
{
    format      ascii;
    class       polyBoundaryMesh;
    location    "constant/polyMesh";
    object      boundary;
}
// * * * * * * * * * * * * * * * * * * * * * * * * * * * * * * * * * * * * * //

6
(
    frontAndBack
    {
        type            patch;
        nFaces          2000;
        startFace       4120605;
    }
    inlet
    {
        type            patch;
        nFaces          400;
        startFace       4122605;
    }
    outlet
    {
        type            patch;
        nFaces          400;
        startFace       4123005;
    }
    lowerWall
    {
        type            patch;
        nFaces          1000;
        startFace       4123405;
    }
    upperWall
    {
        type            patch;
        nFaces          1000;
        startFace       4124405;
    }
    SACCON
    {
        type            wall;
        inGroups        List<word> 
2
(
SACCONGroups
wall
)
;
        nFaces          117115;
        startFace       4125405;
    }
)

// ************************************************************************* //
