/*--------------------------------*- C++ -*----------------------------------*\
  =========                 |
  \\      /  F ield         | OpenFOAM: The Open Source CFD Toolbox
   \\    /   O peration     | Website:  https://openfoam.org
    \\  /    A nd           | Version:  10
     \\/     M anipulation  |
\*---------------------------------------------------------------------------*/
FoamFile
{
    format      ascii;
    class       featureEdgeMesh;
    location    "constant/triSurface";
    object      SACCON.eMesh;
}
// * * * * * * * * * * * * * * * * * * * * * * * * * * * * * * * * * * * * * //


// points:

759
(
(0.416188 3.36568e-06 1.71217e-06)
(-2.76246e-06 3.36568e-06 1.71217e-06)
(0.582708 0.228343 0.0163808)
(0.338786 0.0871021 1.71217e-06)
(0.338786 -0.0870954 1.71217e-06)
(0.582708 -0.228336 0.0163808)
(0.429978 0.228343 -0.00227878)
(0.420672 0.228343 -0.00245127)
(0.418124 0.228343 -0.00243209)
(0.409296 0.228343 -0.00236565)
(0.406271 0.228343 -0.00223765)
(0.435164 0.228343 -0.00218268)
(0.402719 0.228343 -0.00208738)
(0.441829 0.228343 -0.00193423)
(0.400358 0.228343 -0.00185326)
(0.450223 0.228343 -0.00162138)
(0.399415 0.228343 -0.00175985)
(0.39889 0.228343 -0.00166282)
(0.397426 0.228343 -0.00139274)
(0.453671 0.228343 -0.00138048)
(0.396724 0.228343 -0.00118056)
(0.464858 0.228343 -0.000598938)
(0.396634 0.228343 -0.00115369)
(0.396382 0.228343 -0.00103942)
(0.396044 0.228343 -0.000886656)
(0.395893 0.228343 -0.000781106)
(0.395793 0.228343 -0.000711268)
(0.395748 0.228343 -0.000667832)
(0.395666 0.228343 -0.000590086)
(0.465497 0.228343 -0.000540442)
(0.39562 0.228343 -0.000532124)
(0.482794 0.228343 0.00104272)
(0.395588 0.228343 -0.000490576)
(0.395536 0.228343 -0.000400383)
(0.395502 0.228343 -0.000309772)
(0.395483 0.228343 -0.000213918)
(0.395479 0.228343 -0.000111313)
(0.395492 0.228343 -5.614e-06)
(0.395529 0.228343 0.000117328)
(0.395551 0.228343 0.00016272)
(0.395604 0.228343 0.000270315)
(0.395638 0.228343 0.000325991)
(0.395792 0.228343 0.000527812)
(0.395876 0.228343 0.000608594)
(0.396135 0.228343 0.000860071)
(0.396749 0.228343 0.00129037)
(0.489104 0.228343 0.00170424)
(0.397065 0.228343 0.0015124)
(0.39804 0.228343 0.00200816)
(0.509564 0.228343 0.00384934)
(0.399829 0.228343 0.00291827)
(0.400713 0.228343 0.00328028)
(0.4055 0.228343 0.00524004)
(0.512681 0.228343 0.00423485)
(0.524448 0.228343 0.00569011)
(0.406213 0.228343 0.00548643)
(0.411815 0.228343 0.0074218)
(0.528342 0.228343 0.00617176)
(0.536192 0.228343 0.00731371)
(0.546745 0.228343 0.00884898)
(0.411979 0.228343 0.00747844)
(0.417538 0.228343 0.00896053)
(0.547919 0.228343 0.00905226)
(0.419988 0.228343 0.00961362)
(0.559299 0.228343 0.0110212)
(0.423301 0.228343 0.0103375)
(0.429092 0.228343 0.0116028)
(0.5596 0.228343 0.0110839)
(0.571081 0.228343 0.0134681)
(0.430458 0.228343 0.0119012)
(0.434924 0.228343 0.012654)
(0.440769 0.228343 0.0136392)
(0.571207 0.228343 0.0134996)
(0.440828 0.228343 0.0136491)
(0.452519 0.228343 0.0152198)
(0.457332 0.228343 0.0158665)
(0.464295 0.228343 0.0165657)
(0.572701 0.228343 0.0172598)
(0.469664 0.228343 0.0171046)
(0.476111 0.228343 0.0175018)
(0.570894 0.228343 0.0173704)
(0.559061 0.228343 0.0180945)
(0.482841 0.228343 0.0179164)
(0.487951 0.228343 0.0180742)
(0.500141 0.228343 0.0184506)
(0.555951 0.228343 0.0182848)
(0.547216 0.228343 0.0185458)
(0.511654 0.228343 0.0186343)
(0.540184 0.228343 0.0187559)
(0.523165 0.228343 0.0188179)
(0.535364 0.228343 0.0187734)
(0.523508 0.228343 0.0188166)
(0.243908 0.0871021 -0.00871818)
(0.242318 0.0871021 -0.0087473)
(0.231998 0.0871021 -0.00871215)
(0.244438 0.0871021 -0.00870847)
(0.220084 0.0871021 -0.00867158)
(0.26771 0.0871021 -0.00777971)
(0.215536 0.0871021 -0.00865609)
(0.196249 0.0871021 -0.00811679)
(0.190445 0.0871021 -0.00795448)
(0.184332 0.0871021 -0.0075683)
(0.272639 0.0871021 -0.007583)
(0.291492 0.0871021 -0.00627175)
(0.172404 0.0871021 -0.00681472)
(0.166437 0.0871021 -0.00602921)
(0.299634 0.0871021 -0.00570544)
(0.162343 0.0871021 -0.00549031)
(0.30337 0.0871021 -0.00527238)
(0.160475 0.0871021 -0.00508387)
(0.315222 0.0871021 -0.00389842)
(0.15752 0.0871021 -0.0044411)
(0.157495 0.0871021 -0.00443578)
(0.156088 0.0871021 -0.00395555)
(0.155375 0.0871021 -0.00371219)
(0.319278 0.0871021 -0.00342819)
(0.155061 0.0871021 -0.00360507)
(0.154687 0.0871021 -0.00340933)
(0.327015 0.0871021 -0.00206787)
(0.154014 0.0871021 -0.00305703)
(0.153558 0.0871021 -0.00281839)
(0.153357 0.0871021 -0.00267983)
(0.152126 0.0871021 -0.00183096)
(0.152109 0.0871021 -0.00181932)
(0.151609 0.0871021 -0.00136784)
(0.151565 0.0871021 -0.00131741)
(0.151308 0.0871021 -0.00102764)
(0.151266 0.0871021 -0.000979587)
(0.151094 0.0871021 -0.000713352)
(0.151039 0.0871021 -0.00062701)
(0.150933 0.0871021 -0.000381426)
(0.150875 0.0871021 -0.000157059)
(0.150862 0.0871021 -1.69654e-05)
(0.150855 0.0871021 5.50632e-05)
(0.33528 0.0871021 0.000868107)
(0.150863 0.0871021 0.000171317)
(0.150871 0.0871021 0.000283456)
(0.150921 0.0871021 0.000499136)
(0.151007 0.0871021 0.000715883)
(0.151178 0.0871021 0.0010139)
(0.327123 0.0871021 0.00264173)
(0.151196 0.0871021 0.00103626)
(0.15143 0.0871021 0.00132701)
(0.151505 0.0871021 0.00142006)
(0.151966 0.0871021 0.0018427)
(0.152187 0.0871021 0.00204558)
(0.153175 0.0871021 0.00270712)
(0.315428 0.0871021 0.00518477)
(0.154534 0.0871021 0.00361702)
(0.155735 0.0871021 0.00421401)
(0.159821 0.0871021 0.00624536)
(0.314021 0.0871021 0.00549086)
(0.30363 0.0871021 0.00722989)
(0.161126 0.0871021 0.00672485)
(0.166724 0.0871021 0.0087813)
(0.292307 0.0871021 0.00912496)
(0.168536 0.0871021 0.00944694)
(0.291808 0.0871021 0.00918532)
(0.279906 0.0871021 0.0106256)
(0.172462 0.0871021 0.0104328)
(0.176393 0.0871021 0.0114197)
(0.267999 0.0871021 0.0120665)
(0.184219 0.0871021 0.0126953)
(0.263989 0.0871021 0.0125517)
(0.256057 0.0871021 0.0131854)
(0.188702 0.0871021 0.0134261)
(0.244097 0.0871021 0.0141408)
(0.190148 0.0871021 0.0135233)
(0.19613 0.0871021 0.0139254)
(0.200869 0.0871021 0.0142441)
(0.232103 0.0871021 0.0144805)
(0.208111 0.0871021 0.0143574)
(0.220107 0.0871021 0.0145451)
(0.226367 0.0871021 0.014643)
(0.429415 0.228343 -0.00223531)
(0.436322 0.228343 -0.0021503)
(0.441298 0.228343 -0.00191441)
(0.453183 0.228343 -0.00135103)
(0.547262 0.228343 0.0089324)
(0.547846 0.228343 0.00903857)
(0.559546 0.228343 0.0111626)
(0.403043 0.228343 0.00427331)
(0.401075 0.228343 0.00338935)
(0.565204 0.228343 0.0121897)
(0.571165 0.228343 0.013617)
(0.412224 0.228343 0.00749192)
(0.406618 0.228343 0.00552655)
(0.413216 0.228343 0.00783957)
(0.417949 0.228343 0.00899328)
(0.462424 0.228343 0.0164315)
(0.452838 0.228343 0.015205)
(0.441724 0.228343 0.0137831)
(0.476351 0.228343 0.0174774)
(0.464569 0.228343 0.0165926)
(0.405789 0.228343 -0.00225227)
(0.41368 0.228343 -0.00242896)
(0.417545 0.228343 -0.00238139)
(0.405603 0.228343 -0.00224811)
(0.458517 0.228343 -0.00109817)
(0.465055 0.228343 -0.000523892)
(0.481851 0.228343 0.000951329)
(0.488771 0.228343 0.00169967)
(0.512458 0.228343 0.0042611)
(0.395723 0.228343 -0.000649138)
(0.395889 0.228343 -0.000782673)
(0.395679 0.228343 -0.000602481)
(0.39563 0.228343 -0.00054993)
(0.395566 0.228343 -0.00045823)
(0.395526 0.228343 -0.000377595)
(0.395484 0.228343 -0.000199706)
(0.395495 0.228343 -0.000277836)
(0.39548 0.228343 -0.000172806)
(0.395501 0.228343 3.09398e-05)
(0.395483 0.228343 -6.47809e-05)
(0.395546 0.228343 0.000157358)
(0.395639 0.228343 0.000327216)
(0.395548 0.228343 0.000161813)
(0.395744 0.228343 0.000462034)
(0.395861 0.228343 0.000603618)
(0.395815 0.228343 0.000553461)
(0.396139 0.228343 0.000849227)
(0.39643 0.228343 0.0010776)
(0.396315 0.228343 0.00100518)
(0.397057 0.228343 0.0014745)
(0.397658 0.228343 0.00185492)
(0.398363 0.228343 0.0021714)
(0.518822 0.228343 0.00494929)
(0.536067 0.228343 0.00736447)
(0.429471 0.228343 0.011643)
(0.427167 0.228343 0.0112406)
(0.576007 0.228343 0.0169913)
(0.570891 0.228343 0.0173054)
(0.559068 0.228343 0.0180313)
(0.441118 0.228343 0.0136772)
(0.552816 0.228343 0.0184151)
(0.547244 0.228343 0.0185512)
(0.537188 0.228343 0.0187966)
(0.535417 0.228343 0.0187856)
(0.523593 0.228343 0.0187116)
(0.511772 0.228343 0.0186376)
(0.508028 0.228343 0.0186142)
(0.481197 0.228343 0.0178414)
(0.499958 0.228343 0.0183818)
(0.488148 0.228343 0.0180416)
(0.402865 0.228343 -0.00205739)
(0.401403 0.228343 -0.00195556)
(0.4005 0.228343 -0.00189267)
(0.399947 0.228343 -0.00180345)
(0.399224 0.228343 -0.00168666)
(0.3985 0.228343 -0.00156982)
(0.397469 0.228343 -0.00140349)
(0.397776 0.228343 -0.001453)
(0.397065 0.228343 -0.00128002)
(0.396714 0.228343 -0.0011727)
(0.396371 0.228343 -0.00104388)
(0.396557 0.228343 -0.00112468)
(0.396186 0.228343 -0.000963526)
(0.396045 0.228343 -0.000879651)
(0.395914 0.228343 -0.000802197)
(0.279887 0.0871021 -0.00706359)
(0.290087 0.0871021 -0.00647497)
(0.291726 0.0871021 -0.00632626)
(0.303546 0.0871021 -0.00525414)
(0.212424 0.0871021 0.0145257)
(0.20772 0.0871021 0.0143803)
(0.195701 0.0871021 0.0140088)
(0.219742 0.0871021 0.0145486)
(0.232489 0.0871021 -0.00873229)
(0.239133 0.0871021 -0.00879149)
(0.244347 0.0871021 -0.00864657)
(0.220625 0.0871021 -0.00862656)
(0.256202 0.0871021 -0.00831709)
(0.209082 0.0871021 -0.0085237)
(0.268046 0.0871021 -0.00774691)
(0.259989 0.0871021 -0.00821183)
(0.308903 0.0871021 -0.00476826)
(0.315334 0.0871021 -0.00386124)
(0.32694 0.0871021 -0.00222431)
(0.327098 0.0871021 -0.0021946)
(0.332941 0.0871021 -0.00109669)
(0.303466 0.0871021 0.00725926)
(0.294941 0.0871021 0.00873859)
(0.2916 0.0871021 0.00917155)
(0.173029 0.0871021 0.0106703)
(0.171961 0.0871021 0.0103812)
(0.183749 0.0871021 0.0127386)
(0.177845 0.0871021 0.0115995)
(0.279677 0.0871021 0.0107167)
(0.184378 0.0871021 0.01286)
(0.18972 0.0871021 0.013402)
(0.272568 0.0871021 0.011638)
(0.267736 0.0871021 0.0120991)
(0.255767 0.0871021 0.0132413)
(0.251084 0.0871021 0.0136882)
(0.243775 0.0871021 0.014028)
(0.231768 0.0871021 0.0145861)
(0.231765 0.0871021 0.0145861)
(0.185014 0.0871021 -0.00759419)
(0.192815 0.0871021 -0.00805157)
(0.196883 0.0871021 -0.00816965)
(0.173128 0.0871021 -0.00685543)
(0.17379 0.0871021 -0.00693622)
(0.167142 0.0871021 -0.00612484)
(0.161158 0.0871021 -0.00519331)
(0.163239 0.0871021 -0.00564859)
(0.158198 0.0871021 -0.00454591)
(0.156726 0.0871021 -0.00420622)
(0.156841 0.0871021 -0.0042491)
(0.155316 0.0871021 -0.00367869)
(0.154625 0.0871021 -0.00338817)
(0.154786 0.0871021 -0.00348061)
(0.151455 0.0871021 0.0013656)
(0.151441 0.0871021 0.0013474)
(0.151963 0.0871021 0.00185814)
(0.152582 0.0871021 0.00232371)
(0.332922 0.0871021 0.00132185)
(0.153106 0.0871021 0.00271741)
(0.327056 0.0871021 0.00264216)
(0.155114 0.0871021 0.00395641)
(0.160552 0.0871021 0.00654953)
(0.316904 0.0871021 0.00492755)
(0.315312 0.0871021 0.00520379)
(0.166219 0.0871021 0.00859778)
(0.168752 0.0871021 0.00951316)
(0.15397 0.0871021 -0.00301191)
(0.152689 0.0871021 -0.00223872)
(0.152885 0.0871021 -0.00238858)
(0.152102 0.0871021 -0.00178926)
(0.151545 0.0871021 -0.00128354)
(0.151852 0.0871021 -0.00159818)
(0.151344 0.0871021 -0.00107748)
(0.151094 0.0871021 -0.00072687)
(0.150957 0.0871021 -0.000447436)
(0.15089 0.0871021 -0.000228354)
(0.150883 0.0871021 -0.000180392)
(0.150857 0.0871021 1.71217e-06)
(0.150855 0.0871021 5.52357e-05)
(0.150863 0.0871021 0.000189322)
(0.150868 0.0871021 0.000263859)
(0.150892 0.0871021 0.000374474)
(0.150916 0.0871021 0.000482905)
(0.151011 0.0871021 0.000724497)
(0.151208 0.0871021 0.00105073)
(0.151169 0.0871021 0.00100105)
(0.239133 -0.0870954 -0.00879149)
(0.232489 -0.0870954 -0.00873229)
(0.244347 -0.0870954 -0.00864657)
(0.220625 -0.0870954 -0.00862656)
(0.256202 -0.0870954 -0.00831709)
(0.209082 -0.0870954 -0.0085237)
(0.196883 -0.0870954 -0.00816965)
(0.259989 -0.0870954 -0.00821183)
(0.268046 -0.0870954 -0.00774691)
(0.192815 -0.0870954 -0.00805157)
(0.185014 -0.0870954 -0.00759419)
(0.279887 -0.0870954 -0.00706359)
(0.17379 -0.0870954 -0.00693622)
(0.290087 -0.0870954 -0.00647497)
(0.173128 -0.0870954 -0.00685543)
(0.167142 -0.0870954 -0.00612484)
(0.291726 -0.0870954 -0.00632626)
(0.303546 -0.0870954 -0.00525414)
(0.163239 -0.0870954 -0.00564859)
(0.161158 -0.0870954 -0.00519331)
(0.308903 -0.0870954 -0.00476826)
(0.158198 -0.0870954 -0.00454591)
(0.315334 -0.0870954 -0.00386124)
(0.156841 -0.0870954 -0.0042491)
(0.156726 -0.0870954 -0.00420622)
(0.155316 -0.0870954 -0.00367869)
(0.32694 -0.0870954 -0.00222431)
(0.154786 -0.0870954 -0.00348061)
(0.154625 -0.0870954 -0.00338817)
(0.15397 -0.0870954 -0.00301191)
(0.152885 -0.0870954 -0.00238858)
(0.152689 -0.0870954 -0.00223872)
(0.152102 -0.0870954 -0.00178926)
(0.327098 -0.0870954 -0.0021946)
(0.332941 -0.0870954 -0.00109669)
(0.151852 -0.0870954 -0.00159818)
(0.151545 -0.0870954 -0.00128354)
(0.151344 -0.0870954 -0.00107748)
(0.151289 -0.0870954 -0.0010007)
(0.151094 -0.0870954 -0.00072687)
(0.150996 -0.0870954 -0.000525549)
(0.150957 -0.0870954 -0.000447436)
(0.15089 -0.0870954 -0.000228354)
(0.150883 -0.0870954 -0.000180392)
(0.150857 -0.0870954 1.71217e-06)
(0.150855 -0.0870954 5.52357e-05)
(0.332922 -0.0870954 0.00132185)
(0.150863 -0.0870954 0.000189322)
(0.150868 -0.0870954 0.000263859)
(0.150892 -0.0870954 0.000374474)
(0.150916 -0.0870954 0.000482905)
(0.151011 -0.0870954 0.000724497)
(0.151169 -0.0870954 0.00100105)
(0.151208 -0.0870954 0.00105073)
(0.151441 -0.0870954 0.0013474)
(0.327056 -0.0870954 0.00264216)
(0.151455 -0.0870954 0.0013656)
(0.151963 -0.0870954 0.00185814)
(0.152582 -0.0870954 0.00232371)
(0.153106 -0.0870954 0.00271741)
(0.316904 -0.0870954 0.00492755)
(0.155114 -0.0870954 0.00395641)
(0.160552 -0.0870954 0.00654953)
(0.315312 -0.0870954 0.00520379)
(0.303466 -0.0870954 0.00725926)
(0.166219 -0.0870954 0.00859778)
(0.294941 -0.0870954 0.00873859)
(0.168752 -0.0870954 0.00951316)
(0.2916 -0.0870954 0.00917155)
(0.279677 -0.0870954 0.0107167)
(0.171961 -0.0870954 0.0103812)
(0.173029 -0.0870954 0.0106703)
(0.177845 -0.0870954 0.0115995)
(0.272568 -0.0870954 0.011638)
(0.183749 -0.0870954 0.0127386)
(0.267736 -0.0870954 0.0120991)
(0.255767 -0.0870954 0.0132413)
(0.184378 -0.0870954 0.01286)
(0.18972 -0.0870954 0.013402)
(0.251084 -0.0870954 0.0136882)
(0.195701 -0.0870954 0.0140088)
(0.243775 -0.0870954 0.014028)
(0.20772 -0.0870954 0.0143803)
(0.231768 -0.0870954 0.0145861)
(0.212424 -0.0870954 0.0145257)
(0.219742 -0.0870954 0.0145486)
(0.231765 -0.0870954 0.0145861)
(0.41368 -0.228336 -0.00242896)
(0.405789 -0.228336 -0.00225227)
(0.417545 -0.228336 -0.00238139)
(0.429415 -0.228336 -0.00223531)
(0.405603 -0.228336 -0.00224811)
(0.402865 -0.228336 -0.00205739)
(0.436322 -0.228336 -0.0021503)
(0.441298 -0.228336 -0.00191441)
(0.401403 -0.228336 -0.00195556)
(0.4005 -0.228336 -0.00189267)
(0.453183 -0.228336 -0.00135103)
(0.399947 -0.228336 -0.00180345)
(0.399224 -0.228336 -0.00168666)
(0.3985 -0.228336 -0.00156982)
(0.397776 -0.228336 -0.001453)
(0.397469 -0.228336 -0.00140349)
(0.397065 -0.228336 -0.00128002)
(0.458517 -0.228336 -0.00109817)
(0.396714 -0.228336 -0.0011727)
(0.396557 -0.228336 -0.00112468)
(0.396371 -0.228336 -0.00104388)
(0.465055 -0.228336 -0.000523892)
(0.396186 -0.228336 -0.000963526)
(0.396045 -0.228336 -0.000879651)
(0.395914 -0.228336 -0.000802197)
(0.395889 -0.228336 -0.000782673)
(0.395723 -0.228336 -0.000649138)
(0.39563 -0.228336 -0.00054993)
(0.395619 -0.228336 -0.000533681)
(0.395566 -0.228336 -0.00045823)
(0.481851 -0.228336 0.000951329)
(0.395526 -0.228336 -0.000377595)
(0.395495 -0.228336 -0.000277836)
(0.39548 -0.228336 -0.000172806)
(0.395483 -0.228336 -6.47809e-05)
(0.395501 -0.228336 3.09398e-05)
(0.395548 -0.228336 0.000161813)
(0.395639 -0.228336 0.000327216)
(0.395744 -0.228336 0.000462034)
(0.395815 -0.228336 0.000553461)
(0.395861 -0.228336 0.000603618)
(0.396139 -0.228336 0.000849227)
(0.396315 -0.228336 0.00100518)
(0.488771 -0.228336 0.00169967)
(0.39643 -0.228336 0.0010776)
(0.397057 -0.228336 0.0014745)
(0.397658 -0.228336 0.00185492)
(0.512458 -0.228336 0.0042611)
(0.398363 -0.228336 0.0021714)
(0.401075 -0.228336 0.00338935)
(0.403043 -0.228336 0.00427331)
(0.518822 -0.228336 0.00494929)
(0.406618 -0.228336 0.00552655)
(0.536067 -0.228336 0.00736447)
(0.412224 -0.228336 0.00749192)
(0.547262 -0.228336 0.0089324)
(0.413216 -0.228336 0.00783957)
(0.417949 -0.228336 0.00899328)
(0.547846 -0.228336 0.00903857)
(0.427167 -0.228336 0.0112406)
(0.559546 -0.228336 0.0111626)
(0.565204 -0.228336 0.0121897)
(0.429471 -0.228336 0.011643)
(0.441118 -0.228336 0.0136772)
(0.571165 -0.228336 0.013617)
(0.441724 -0.228336 0.0137831)
(0.452838 -0.228336 0.015205)
(0.462424 -0.228336 0.0164315)
(0.576007 -0.228336 0.0169913)
(0.464569 -0.228336 0.0165926)
(0.476351 -0.228336 0.0174774)
(0.570891 -0.228336 0.0173054)
(0.559068 -0.228336 0.0180313)
(0.481197 -0.228336 0.0178414)
(0.488148 -0.228336 0.0180416)
(0.552816 -0.228336 0.0184151)
(0.499958 -0.228336 0.0183818)
(0.508028 -0.228336 0.0186142)
(0.547244 -0.228336 0.0185512)
(0.537188 -0.228336 0.0187966)
(0.511772 -0.228336 0.0186376)
(0.523593 -0.228336 0.0187116)
(0.535417 -0.228336 0.0187856)
(0.184332 -0.0870954 -0.0075683)
(0.190445 -0.0870954 -0.00795448)
(0.172404 -0.0870954 -0.00681472)
(0.315222 -0.0870954 -0.00389842)
(0.319278 -0.0870954 -0.00342819)
(0.30337 -0.0870954 -0.00527238)
(0.161126 -0.0870954 0.00672485)
(0.159821 -0.0870954 0.00624536)
(0.155735 -0.0870954 0.00421401)
(0.327015 -0.0870954 -0.00206787)
(0.166724 -0.0870954 0.0087813)
(0.172462 -0.0870954 0.0104328)
(0.168536 -0.0870954 0.00944694)
(0.184219 -0.0870954 0.0126953)
(0.176393 -0.0870954 0.0114197)
(0.190148 -0.0870954 0.0135233)
(0.188702 -0.0870954 0.0134261)
(0.232103 -0.0870954 0.0144805)
(0.226367 -0.0870954 0.014643)
(0.220107 -0.0870954 0.0145451)
(0.244097 -0.0870954 0.0141408)
(0.215536 -0.0870954 -0.00865609)
(0.220084 -0.0870954 -0.00867158)
(0.196249 -0.0870954 -0.00811679)
(0.231998 -0.0870954 -0.00871215)
(0.242318 -0.0870954 -0.0087473)
(0.243908 -0.0870954 -0.00871818)
(0.244438 -0.0870954 -0.00870847)
(0.166437 -0.0870954 -0.00602921)
(0.162343 -0.0870954 -0.00549031)
(0.26771 -0.0870954 -0.00777971)
(0.272639 -0.0870954 -0.007583)
(0.160475 -0.0870954 -0.00508387)
(0.299634 -0.0870954 -0.00570544)
(0.291492 -0.0870954 -0.00627175)
(0.151266 -0.0870954 -0.000979587)
(0.151308 -0.0870954 -0.00102764)
(0.151039 -0.0870954 -0.00062701)
(0.151094 -0.0870954 -0.000713352)
(0.150933 -0.0870954 -0.000381426)
(0.150875 -0.0870954 -0.000157059)
(0.150862 -0.0870954 -1.69654e-05)
(0.150855 -0.0870954 5.50632e-05)
(0.150871 -0.0870954 0.000283456)
(0.150863 -0.0870954 0.000171317)
(0.150921 -0.0870954 0.000499136)
(0.150888 -0.0870954 0.000358788)
(0.151007 -0.0870954 0.000715883)
(0.151178 -0.0870954 0.0010139)
(0.151196 -0.0870954 0.00103626)
(0.151966 -0.0870954 0.0018427)
(0.151505 -0.0870954 0.00142006)
(0.15143 -0.0870954 0.00132701)
(0.152187 -0.0870954 0.00204558)
(0.153175 -0.0870954 0.00270712)
(0.154534 -0.0870954 0.00361702)
(0.33528 -0.0870954 0.000868107)
(0.327123 -0.0870954 0.00264173)
(0.315428 -0.0870954 0.00518477)
(0.314021 -0.0870954 0.00549086)
(0.30363 -0.0870954 0.00722989)
(0.292307 -0.0870954 0.00912496)
(0.291808 -0.0870954 0.00918532)
(0.279906 -0.0870954 0.0106256)
(0.267999 -0.0870954 0.0120665)
(0.19613 -0.0870954 0.0139254)
(0.208111 -0.0870954 0.0143574)
(0.200869 -0.0870954 0.0142441)
(0.263989 -0.0870954 0.0125517)
(0.256057 -0.0870954 0.0131854)
(0.157495 -0.0870954 -0.00443578)
(0.15752 -0.0870954 -0.0044411)
(0.156088 -0.0870954 -0.00395555)
(0.155375 -0.0870954 -0.00371219)
(0.155061 -0.0870954 -0.00360507)
(0.154687 -0.0870954 -0.00340933)
(0.154014 -0.0870954 -0.00305703)
(0.153558 -0.0870954 -0.00281839)
(0.153357 -0.0870954 -0.00267983)
(0.152126 -0.0870954 -0.00183096)
(0.152109 -0.0870954 -0.00181932)
(0.151609 -0.0870954 -0.00136784)
(0.151565 -0.0870954 -0.00131741)
(0.409296 -0.228336 -0.00236565)
(0.418124 -0.228336 -0.00243209)
(0.420672 -0.228336 -0.00245127)
(0.429978 -0.228336 -0.00227878)
(0.435164 -0.228336 -0.00218268)
(0.406271 -0.228336 -0.00223765)
(0.402719 -0.228336 -0.00208738)
(0.441829 -0.228336 -0.00193423)
(0.450223 -0.228336 -0.00162138)
(0.399415 -0.228336 -0.00175985)
(0.400358 -0.228336 -0.00185326)
(0.397426 -0.228336 -0.00139274)
(0.39889 -0.228336 -0.00166282)
(0.453671 -0.228336 -0.00138048)
(0.464858 -0.228336 -0.000598938)
(0.396724 -0.228336 -0.00118056)
(0.396634 -0.228336 -0.00115369)
(0.396044 -0.228336 -0.000886656)
(0.396382 -0.228336 -0.00103942)
(0.395893 -0.228336 -0.000781106)
(0.395793 -0.228336 -0.000711268)
(0.395666 -0.228336 -0.000590086)
(0.395748 -0.228336 -0.000667832)
(0.465497 -0.228336 -0.000540442)
(0.482794 -0.228336 0.00104272)
(0.395588 -0.228336 -0.000490576)
(0.39562 -0.228336 -0.000532124)
(0.395502 -0.228336 -0.000309772)
(0.395536 -0.228336 -0.000400383)
(0.395479 -0.228336 -0.000111313)
(0.395482 -0.228336 -0.000196656)
(0.395483 -0.228336 -0.000213918)
(0.395529 -0.228336 0.000117328)
(0.395492 -0.228336 -5.614e-06)
(0.395551 -0.228336 0.00016272)
(0.395604 -0.228336 0.000270315)
(0.395792 -0.228336 0.000527812)
(0.395638 -0.228336 0.000325991)
(0.395876 -0.228336 0.000608594)
(0.396135 -0.228336 0.000860071)
(0.396749 -0.228336 0.00129037)
(0.39804 -0.228336 0.00200816)
(0.397065 -0.228336 0.0015124)
(0.489104 -0.228336 0.00170424)
(0.509564 -0.228336 0.00384934)
(0.400713 -0.228336 0.00328028)
(0.399829 -0.228336 0.00291827)
(0.406213 -0.228336 0.00548643)
(0.4055 -0.228336 0.00524004)
(0.512681 -0.228336 0.00423485)
(0.411815 -0.228336 0.0074218)
(0.524448 -0.228336 0.00569011)
(0.528342 -0.228336 0.00617176)
(0.536192 -0.228336 0.00731371)
(0.417538 -0.228336 0.00896053)
(0.411979 -0.228336 0.00747844)
(0.423301 -0.228336 0.0103375)
(0.419988 -0.228336 0.00961362)
(0.546745 -0.228336 0.00884898)
(0.547919 -0.228336 0.00905226)
(0.429092 -0.228336 0.0116028)
(0.559299 -0.228336 0.0110212)
(0.5596 -0.228336 0.0110839)
(0.434924 -0.228336 0.012654)
(0.430458 -0.228336 0.0119012)
(0.440769 -0.228336 0.0136392)
(0.571081 -0.228336 0.0134681)
(0.571207 -0.228336 0.0134996)
(0.452519 -0.228336 0.0152198)
(0.440828 -0.228336 0.0136491)
(0.464295 -0.228336 0.0165657)
(0.457332 -0.228336 0.0158665)
(0.572701 -0.228336 0.0172598)
(0.469664 -0.228336 0.0171046)
(0.570894 -0.228336 0.0173704)
(0.482841 -0.228336 0.0179164)
(0.476111 -0.228336 0.0175018)
(0.500141 -0.228336 0.0184506)
(0.487951 -0.228336 0.0180742)
(0.559061 -0.228336 0.0180945)
(0.555951 -0.228336 0.0182848)
(0.547216 -0.228336 0.0185458)
(0.540184 -0.228336 0.0187559)
(0.511654 -0.228336 0.0186343)
(0.523165 -0.228336 0.0188179)
(0.535364 -0.228336 0.0187734)
(0.523508 -0.228336 0.0188166)
(0.551152 0.264168 0.00819127)
(0.519595 0.299993 1.71217e-06)
(0.399766 0.122412 0.00409649)
(0.460747 0.157723 0.00819127)
(0.521727 0.193033 0.0122861)
(0.0728951 3.36568e-06 -0.0145846)
(0.0635052 3.36568e-06 -0.0130981)
(0.0505651 3.36568e-06 -0.0110496)
(0.0484857 3.36568e-06 -0.0107204)
(0.0252201 3.36568e-06 -0.00606745)
(0.0236234 3.36568e-06 -0.00574811)
(0.0126633 3.36568e-06 -0.0030808)
(0.377487 0.0435527 1.71217e-06)
(0.396837 0.0217781 1.71217e-06)
(0.0188547 0.0108907 1.71217e-06)
(0.00301727 3.36568e-06 0.0013637)
(0.405715 3.36568e-06 0.005227)
(0.00603647 3.36568e-06 0.00272531)
(0.0120737 3.36568e-06 0.00544803)
(0.40426 3.36568e-06 0.00583671)
(0.017219 3.36568e-06 0.00776849)
(0.3928 3.36568e-06 0.0106393)
(0.0243149 3.36568e-06 0.010482)
(0.0323597 3.36568e-06 0.0135583)
(0.391989 3.36568e-06 0.0109158)
(0.379416 3.36568e-06 0.0152013)
(0.0367835 3.36568e-06 0.0149432)
(0.0467817 3.36568e-06 0.0180731)
(0.378939 3.36568e-06 0.0153642)
(0.36661 3.36568e-06 0.0187258)
(0.0494951 3.36568e-06 0.0187227)
(0.0623852 3.36568e-06 0.0218088)
(0.361415 3.36568e-06 0.0201425)
(0.353686 3.36568e-06 0.0217663)
(0.343831 3.36568e-06 0.0238371)
(0.0754983 3.36568e-06 0.0240565)
(0.0780188 3.36568e-06 0.0244885)
(0.0886683 3.36568e-06 0.0257406)
(0.0949396 3.36568e-06 0.0264778)
(0.0282834 0.0163344 1.71217e-06)
(0.0377121 0.0217781 1.71217e-06)
(0.0471408 0.0272217 1.71217e-06)
(0.0565695 0.0326654 1.71217e-06)
(0.0659982 0.0381091 1.71217e-06)
(0.0754269 0.0435527 1.71217e-06)
(0.358136 0.0653274 1.71217e-06)
(0.367812 0.0544401 1.71217e-06)
(0.0848557 0.0489964 1.71217e-06)
(0.0942844 0.0544401 1.71217e-06)
(0.103713 0.0598837 1.71217e-06)
(0.113142 0.0653274 1.71217e-06)
(0.348461 0.0762148 1.71217e-06)
(0.12257 0.0707711 1.71217e-06)
(0.348461 -0.076208 1.71217e-06)
(0.358136 -0.0653207 1.71217e-06)
(0.12257 -0.0707643 1.71217e-06)
(0.113142 -0.0653207 1.71217e-06)
(0.367812 -0.0544333 1.71217e-06)
(0.103713 -0.059877 1.71217e-06)
(0.0942844 -0.0544333 1.71217e-06)
(0.0848557 -0.0489897 1.71217e-06)
(0.377487 -0.043546 1.71217e-06)
(0.0754269 -0.043546 1.71217e-06)
(0.396837 -0.0217713 1.71217e-06)
(0.0659982 -0.0381023 1.71217e-06)
(0.0565695 -0.0326587 1.71217e-06)
(0.0471408 -0.027215 1.71217e-06)
(0.0377121 -0.0217713 1.71217e-06)
(0.0282834 -0.0163276 1.71217e-06)
(0.0188547 -0.010884 1.71217e-06)
(0.521727 -0.193026 0.0122861)
(0.460747 -0.157716 0.00819127)
(0.399766 -0.122406 0.00409649)
(0.519595 -0.299987 1.71217e-06)
(0.551152 -0.264162 0.00819127)
)


// edges:

764
(
(2 684)
(685 684)
(686 3)
(686 687)
(688 687)
(688 2)
(689 690)
(691 692)
(692 693)
(693 694)
(694 695)
(696 697)
(697 0)
(1 698)
(695 1)
(1 699)
(700 0)
(699 701)
(701 702)
(703 700)
(702 704)
(705 703)
(704 706)
(706 707)
(708 705)
(709 708)
(707 710)
(710 711)
(712 709)
(713 712)
(711 714)
(714 715)
(716 713)
(717 716)
(718 717)
(715 719)
(719 720)
(720 721)
(721 722)
(698 723)
(723 724)
(724 725)
(725 726)
(726 727)
(727 728)
(729 730)
(730 696)
(728 731)
(731 732)
(732 733)
(733 734)
(3 735)
(735 729)
(734 736)
(737 4)
(738 737)
(739 740)
(741 738)
(740 742)
(742 743)
(743 744)
(745 741)
(744 746)
(747 745)
(746 748)
(748 749)
(749 750)
(750 751)
(751 752)
(0 747)
(753 752)
(753 1)
(754 5)
(754 755)
(756 755)
(756 4)
(757 758)
(758 5)
(6 7)
(7 8)
(8 9)
(9 10)
(11 6)
(10 12)
(13 11)
(12 14)
(15 13)
(14 16)
(16 17)
(17 18)
(19 15)
(18 20)
(21 19)
(20 22)
(22 23)
(23 24)
(24 25)
(25 26)
(26 27)
(27 28)
(29 21)
(28 30)
(31 29)
(30 32)
(32 33)
(33 34)
(34 35)
(35 36)
(36 37)
(37 38)
(38 39)
(39 40)
(40 41)
(41 42)
(42 43)
(43 44)
(44 45)
(46 31)
(45 47)
(47 48)
(49 46)
(48 50)
(50 51)
(51 52)
(53 49)
(54 53)
(52 55)
(55 56)
(57 54)
(58 57)
(59 58)
(56 60)
(60 61)
(62 59)
(61 63)
(64 62)
(63 65)
(65 66)
(67 64)
(68 67)
(66 69)
(69 70)
(70 71)
(72 68)
(2 72)
(71 73)
(73 74)
(74 75)
(75 76)
(77 2)
(76 78)
(78 79)
(80 77)
(81 80)
(79 82)
(82 83)
(83 84)
(85 81)
(86 85)
(84 87)
(88 86)
(87 89)
(90 88)
(91 90)
(89 91)
(92 93)
(93 94)
(95 92)
(94 96)
(97 95)
(96 98)
(98 99)
(99 100)
(100 101)
(102 97)
(103 102)
(101 104)
(104 105)
(106 103)
(105 107)
(108 106)
(107 109)
(110 108)
(109 111)
(111 112)
(112 113)
(113 114)
(115 110)
(114 116)
(116 117)
(118 115)
(117 119)
(119 120)
(120 121)
(121 122)
(3 118)
(122 123)
(123 124)
(124 125)
(125 126)
(126 127)
(127 128)
(128 129)
(129 130)
(130 131)
(131 132)
(132 133)
(134 3)
(133 135)
(135 136)
(136 137)
(137 138)
(138 139)
(140 134)
(139 141)
(141 142)
(142 143)
(143 144)
(144 145)
(145 146)
(147 140)
(146 148)
(148 149)
(149 150)
(151 147)
(152 151)
(150 153)
(153 154)
(155 152)
(154 156)
(157 155)
(158 157)
(156 159)
(159 160)
(161 158)
(160 162)
(163 161)
(164 163)
(162 165)
(166 164)
(165 167)
(167 168)
(168 169)
(170 166)
(169 171)
(171 172)
(173 170)
(172 173)
(174 175)
(175 176)
(176 177)
(178 179)
(179 180)
(181 182)
(180 183)
(183 184)
(185 186)
(186 181)
(187 185)
(188 187)
(189 190)
(190 191)
(192 193)
(193 189)
(194 195)
(196 174)
(195 196)
(197 194)
(177 198)
(198 199)
(199 200)
(201 202)
(200 201)
(203 204)
(205 203)
(206 205)
(207 206)
(208 207)
(209 210)
(210 208)
(211 209)
(212 213)
(213 211)
(214 212)
(215 216)
(216 214)
(217 215)
(218 219)
(219 217)
(220 218)
(221 222)
(222 220)
(223 221)
(224 223)
(225 224)
(182 225)
(202 226)
(226 227)
(227 178)
(228 229)
(229 188)
(2 230)
(184 2)
(231 232)
(230 231)
(191 233)
(233 228)
(232 234)
(234 235)
(235 236)
(236 237)
(237 238)
(238 239)
(239 240)
(241 192)
(242 243)
(243 241)
(240 242)
(244 197)
(245 244)
(246 245)
(247 246)
(248 247)
(249 248)
(250 251)
(251 249)
(252 250)
(253 252)
(254 255)
(255 253)
(256 254)
(257 256)
(258 257)
(204 258)
(259 260)
(260 261)
(261 262)
(263 264)
(264 265)
(266 263)
(267 268)
(268 269)
(270 267)
(269 271)
(272 270)
(273 259)
(271 274)
(274 273)
(262 275)
(276 277)
(275 276)
(277 278)
(279 3)
(278 279)
(280 281)
(281 282)
(283 284)
(285 286)
(286 283)
(282 287)
(288 285)
(265 289)
(289 288)
(290 291)
(287 290)
(291 292)
(292 293)
(293 294)
(294 295)
(296 266)
(295 296)
(297 298)
(298 299)
(299 272)
(300 301)
(301 297)
(302 300)
(303 304)
(304 302)
(305 303)
(306 307)
(307 305)
(308 306)
(309 310)
(310 308)
(311 312)
(313 311)
(314 313)
(3 315)
(316 314)
(315 317)
(318 316)
(319 318)
(320 321)
(317 320)
(321 280)
(322 319)
(323 322)
(284 323)
(324 309)
(325 326)
(326 324)
(327 325)
(328 329)
(329 327)
(330 328)
(331 330)
(332 331)
(333 332)
(334 333)
(335 334)
(336 335)
(337 336)
(338 337)
(339 338)
(340 339)
(341 340)
(342 343)
(343 341)
(312 342)
(344 345)
(346 344)
(345 347)
(348 346)
(347 349)
(349 350)
(351 348)
(352 351)
(350 353)
(353 354)
(355 352)
(354 356)
(357 355)
(356 358)
(358 359)
(360 357)
(361 360)
(359 362)
(362 363)
(364 361)
(363 365)
(366 364)
(365 367)
(367 368)
(368 369)
(370 366)
(369 371)
(371 372)
(372 373)
(373 374)
(374 375)
(375 376)
(377 370)
(378 377)
(376 379)
(379 380)
(380 381)
(4 378)
(381 382)
(382 383)
(383 384)
(384 385)
(385 386)
(386 387)
(387 388)
(388 389)
(390 4)
(389 391)
(391 392)
(392 393)
(393 394)
(394 395)
(395 396)
(396 397)
(397 398)
(399 390)
(398 400)
(400 401)
(401 402)
(402 403)
(404 399)
(403 405)
(405 406)
(407 404)
(408 407)
(406 409)
(410 408)
(409 411)
(412 410)
(413 412)
(411 414)
(414 415)
(415 416)
(417 413)
(416 418)
(419 417)
(420 419)
(418 421)
(421 422)
(423 420)
(422 424)
(425 423)
(424 426)
(427 425)
(426 428)
(428 429)