/*--------------------------------*- C++ -*----------------------------------*\
|                                                                             |
|    HiSA: High Speed Aerodynamic solver                                      |
|    Copyright (C) 2014-2017 Johan Heyns - CSIR, South Africa                 |
|    Copyright (C) 2014-2017 Oliver Oxtoby - CSIR, South Africa               |
|                                                                             |
\*---------------------------------------------------------------------------*/
FoamFile
{
    version     2.0;
    format      ascii;
    class       volScalarField;
    location    "0";
    object      omega;
}
// * * * * * * * * * * * * * * * * * * * * * * * * * * * * * * * * * * * * * //

#include        "include/freestreamConditions"

dimensions      [0 0 -1 0 0 0 0];

internalField   uniform $turbulentOmega;

boundaryField
{
    inlet
    {
        type            turbulentMixingLengthFrequencyInlet;
        mixingLength    1.0e-5;
        value           $internalField;
    }

    outlet
    {
        type            turbulentMixingLengthFrequencyInlet;
        mixingLength    1.0e-5;
        value           $internalField;
    }

    frontAndBack
    {
        type            turbulentMixingLengthFrequencyInlet;
        mixingLength    1.0e-5;
        value           $internalField;
    }

    lowerWall
    {
        type            turbulentMixingLengthFrequencyInlet;
        mixingLength    1.0e-5;
        value           $internalField;
    }

    upperWall
    {
        type            turbulentMixingLengthFrequencyInlet;
        mixingLength    1.0e-5;
        value           $internalField;
    }

    SACCON
    {
        type            omegaWallFunction;
        value           uniform 0;
    }
}

// ************************************************************************* //